34   
#    5.15400   8.94190   7.13340   0.00000   0.00000   0.03120   0.00000  -1.91920  -0.24220
Al           0.61000   4.33000   3.32000
Al           3.20000   2.83000   3.32000
Al           0.64000   7.30000   3.32000
Al           3.20000   8.80000   3.32000
Sit          4.93000   3.01000   0.65000
Sit          2.44000   1.47000   0.67000
Sit         -0.12000   5.94000   0.67000
Sit          2.37000   7.48000   0.65000
Ob           0.02000   4.47000   0.00000
Ob           1.00000   2.04000   0.21000
Ob           1.04000   6.83000   0.01000
Ob           3.60000   2.36000   0.01000
Ob           3.59000   6.51000   0.21000
Ob           2.58000   0.00000   0.00000
Op          -0.34000   3.04000   2.26000
Op          -0.01000   5.82000   2.27000
Op           2.55000   1.35000   2.27000
Op           2.25000   7.51000   2.26000
Oh          -0.34000   8.60000   2.32000
Oh           3.79000   1.34000   4.33000
Oh          -0.95000   4.08000   4.31000
Oh          -0.95000   7.53000   4.34000
Oh           1.62000   3.06000   4.34000
Oh           1.64000   8.55000   4.31000
Oh           1.23000   5.81000   4.33000
Oh           2.23000   4.13000   2.32000
H            0.12000   0.49000   2.32000
H           -1.10000   1.29000   5.25000
H           -1.20000   4.34000   5.20000
H            1.37000   2.65000   5.18000
H           -1.19000   7.12000   5.18000
H            1.36000  -0.13000   5.20000
H            1.50000   5.76000   5.25000
H            2.71000   4.96000   2.32000

